tests/py_dss_interface/cases/34Bus/nmsu_linecode2_ABC.txt
!  This file assumes the phases are ABC

! Since units are not specified, it is assumed the length units in the line definitions match

New linecode.300 nphases=3 basefreq=60   ! ohms per 1000ft  Corrected 11/30/05
~ rmatrix = [0.253181818   |  0.039791667     0.250719697  |   0.040340909      0.039128788     0.251780303]  !ABC ORDER
~ xmatrix = [0.252708333   |  0.109450758     0.256988636  |   0.094981061      0.086950758     0.255132576]
~ CMATRIX = [2.680150309   | -0.769281006     2.5610381    |  -0.499507676     -0.312072984     2.455590387]

New linecode.301 nphases=3 basefreq=60
~ rmatrix = [0.365530303   |   0.04407197      0.36282197   |   0.04467803       0.043333333     0.363996212]
~ xmatrix = [0.267329545   |   0.122007576     0.270473485  |   0.107784091      0.099204545     0.269109848] 
~ cmatrix = [2.572492163   |  -0.72160598      2.464381882  |  -0.472329395     -0.298961096     2.368881119]

New linecode.302 nphases=1 basefreq=60
~ rmatrix = (0.530208 )
~ xmatrix = (0.281345 )
~ cmatrix = (2.12257 )
New linecode.303 nphases=1 basefreq=60
~ rmatrix = (0.530208 )
~ xmatrix = (0.281345 )
~ cmatrix = (2.12257 )
New linecode.304 nphases=1 basefreq=60
~ rmatrix = (0.363958 )
~ xmatrix = (0.269167 )
~ cmatrix = (2.1922 )
